test/data/three_phase/network_model_case2/node.glm
//Test of future IEEE Network test system.

clock {
	timezone EST+8EDT;
	timestamp '2000-01-01 0:00:00';
	stoptime '2000-01-01 0:00:01';
}

module powerflow {
    solver_method NR;
};

#set profiler=1;
#set relax_naming_rules=1;
#set savefile="Output.xml";

module reliability {
	maximum_event_length 18000;	//Maximum length of events in seconds (manual events are excluded from this limit);
	report_event_log false;
}

object fault_check {
	name test_fault;
	check_mode ONCHANGE;
	eventgen_object testgendev_rand;
	output_filename filename.txt;
}

object metrics {
	name testmetrics;
	report_file testmetrics.txt;
	module_metrics_object pwrmetrics;	
	metrics_of_interest "SAIFI";
	customer_group "class=meter";
	metric_interval 5 h; 
	report_interval 5 h;
}

object eventgen {
	name testgendev_rand;
	parent testmetrics;
	fault_type "SW-ABC"; //Type of fault for the object to induce
	manual_outages "10_sw,2001-01-01 3:00:01,2001-01-01 3:00:02";
}

object power_metrics {
	name pwrmetrics;
	base_time_value 1 h;
}

// Node Objects

object meter {
     name "P1";
     phases ABC;
     nominal_voltage 132790;
     bustype SWING;
}

object node {
     name "P2";
     phases ABC;
     nominal_voltage 132790;
}

object node {
     name "P3";
     phases ABC;
     nominal_voltage 132790;
}

object node {
     name "P4";
     phases ABC;
     nominal_voltage 132790;
}

object node {
     name "P5";
     phases ABC;
     nominal_voltage 8366;
}

object node {
     name "P6";
     phases ABC;
     nominal_voltage 8366;
}

object node {
     name "P7";
     phases ABC;
     nominal_voltage 132790;
}

object node {
     name "P8";
     phases ABC;
     nominal_voltage 132790;
}

object node {
     name "P9";
     phases ABC;
     nominal_voltage 8366;
}

object node {
     name "P10";
     phases ABC;
     nominal_voltage 8366;
}

object node {
     name "P11";
     phases ABC;
     nominal_voltage 8366;
}

object node {
     name "P12";
     phases ABC;
     nominal_voltage 8366;
}

object node {
     name "P13";
     phases ABC;
     nominal_voltage 8366;
}

object node {
     name "P14";
     phases ABC;
     nominal_voltage 8366;
}

object node {
     name "P15";
     phases ABC;
     nominal_voltage 8366;
}

object node {
     name "P16";
     phases ABC;
     nominal_voltage 8366;
}

object node {
     name "P17";
     phases ABC;
     nominal_voltage 8366;
}

object node {
     name "P18";
     phases ABC;
     nominal_voltage 8366;
}

object node {
     name "P19";
     phases ABC;
     nominal_voltage 8366;
}

object node {
     name "P20";
     phases ABC;
     nominal_voltage 8366;
}

object node {
     name "P21";
     phases ABC;
     nominal_voltage 8366;
}

object node {
     name "P22";
     phases ABC;
     nominal_voltage 8366;
}

object node {
     name "P23";
     phases ABC;
     nominal_voltage 8366;
}

object node {
     name "P24";
     phases ABC;
     nominal_voltage 8366;
}

object node {
     name "P25";
     phases ABC;
     nominal_voltage 8366;
}

object node {
     name "P26";
     phases ABC;
     nominal_voltage 8366;
}

object node {
     name "P27";
     phases ABC;
     nominal_voltage 8366;
}

object node {
     name "P28";
     phases ABC;
     nominal_voltage 8366;
}

object node {
     name "P29";
     phases ABC;
     nominal_voltage 8366;
}

object node {
     name "P30";
     phases ABC;
     nominal_voltage 8366;
}

object node {
     name "P31";
     phases ABC;
     nominal_voltage 8366;
}

object node {
     name "P32";
     phases ABC;
     nominal_voltage 8366;
}

object node {
     name "P33";
     phases ABC;
     nominal_voltage 8366;
}

object node {
     name "P34";
     phases ABC;
     nominal_voltage 8366;
}

object node {
     name "P35";
     phases ABC;
     nominal_voltage 8366;
}

object node {
     name "P36";
     phases ABC;
     nominal_voltage 8366;
}

object node {
     name "P37";
     phases ABC;
     nominal_voltage 8366;
}

object node {
     name "P38";
     phases ABC;
     nominal_voltage 8366;
}

object node {
     name "P39";
     phases ABC;
     nominal_voltage 8366;
}

object node {
     name "P40";
     phases ABC;
     nominal_voltage 8366;
}

object node {
     name "P41";
     phases ABC;
     nominal_voltage 8366;
}

object node {
     name "P42";
     phases ABC;
     nominal_voltage 8366;
}

object node {
     name "P43";
     phases ABC;
     nominal_voltage 8366;
}

object node {
     name "P44";
     phases ABC;
     nominal_voltage 8366;
}

object node {
     name "P45";
     phases ABC;
     nominal_voltage 8366;
}

object node {
     name "P46";
     phases ABC;
     nominal_voltage 8366;
}

object node {
     name "P47";
     phases ABC;
     nominal_voltage 8366;
}

object node {
     name "P48";
     phases ABC;
     nominal_voltage 8366;
}

object node {
     name "P49";
     phases ABC;
     nominal_voltage 8366;
}

object node {
     name "P50";
     phases ABC;
     nominal_voltage 8366;
}

object node {
     name "P51";
     phases ABC;
     nominal_voltage 8366;
}

object node {
     name "P52";
     phases ABC;
     nominal_voltage 8366;
}

object node {
     name "P53";
     phases ABC;
     nominal_voltage 8366;
}

object node {
     name "P54";
     phases ABC;
     nominal_voltage 8366;
}

object node {
     name "P55";
     phases ABC;
     nominal_voltage 8366;
}

object node {
     name "P56";
     phases ABC;
     nominal_voltage 8366;
}

object node {
     name "P57";
     phases ABC;
     nominal_voltage 8366;
}

object node {
     name "P58";
     phases ABC;
     nominal_voltage 8366;
}

object node {
     name "P59";
     phases ABC;
     nominal_voltage 8366;
}

object node {
     name "P60";
     phases ABC;
     nominal_voltage 8366;
}

object node {
     name "P61";
     phases ABC;
     nominal_voltage 8366;
}

object node {
     name "P62";
     phases ABC;
     nominal_voltage 8366;
}

object node {
     name "P63";
     phases ABC;
     nominal_voltage 8366;
}

object node {
     name "P64";
     phases ABC;
     nominal_voltage 8366;
}

object node {
     name "P65";
     phases ABC;
     nominal_voltage 8366;
}

object node {
     name "P66";
     phases ABC;
     nominal_voltage 8366;
}

object node {
     name "P67";
     phases ABC;
     nominal_voltage 8366;
}

object node {
     name "P68";
     phases ABC;
     nominal_voltage 8366;
}

object node {
     name "P69";
     phases ABC;
     nominal_voltage 8366;
}

object node {
     name "P70";
     phases ABC;
     nominal_voltage 8366;
}

object node {
     name "P71";
     phases ABC;
     nominal_voltage 8366;
}

object node {
     name "P72";
     phases ABC;
     nominal_voltage 8366;
}

object node {
     name "P73";
     phases ABC;
     nominal_voltage 8366;
}

object node {
     name "P74";
     phases ABC;
     nominal_voltage 8366;
}

object node {
     name "P75";
     phases ABC;
     nominal_voltage 8366;
}

object node {
     name "P76";
     phases ABC;
     nominal_voltage 8366;
}

object node {
     name "P77";
     phases ABC;
     nominal_voltage 8366;
}

object node {
     name "P78";
     phases ABC;
     nominal_voltage 8366;
}

object node {
     name "P79";
     phases ABC;
     nominal_voltage 8366;
}

object node {
     name "P80";
     phases ABC;
     nominal_voltage 8366;
}

object node {
     name "P81";
     phases ABC;
     nominal_voltage 8366;
}

object node {
     name "P82";
     phases ABC;
     nominal_voltage 8366;
}

object node {
     name "P83";
     phases ABC;
     nominal_voltage 8366;
}

object node {
     name "P84";
     phases ABC;
     nominal_voltage 8366;
}

object node {
     name "P85";
     phases ABC;
     nominal_voltage 8366;
}

object node {
     name "P86";
     phases ABC;
     nominal_voltage 8366;
}

object node {
     name "P87";
     phases ABC;
     nominal_voltage 8366;
}

object node {
     name "P88";
     phases ABC;
     nominal_voltage 8366;
}

object node {
     name "P89";
     phases ABC;
     nominal_voltage 8366;
}

object node {
     name "P90";
     phases ABC;
     nominal_voltage 8366;
}

object node {
     name "P91";
     phases ABC;
     nominal_voltage 8366;
}

object node {
     name "P92";
     phases ABC;
     nominal_voltage 8366;
}

object node {
     name "P93";
     phases ABC;
     nominal_voltage 8366;
}

object node {
     name "P94";
     phases ABC;
     nominal_voltage 8366;
}

object node {
     name "P95";
     phases ABC;
     nominal_voltage 8366;
}

object node {
     name "P96";
     phases ABC;
     nominal_voltage 8366;
}

object node {
     name "P97";
     phases ABC;
     nominal_voltage 8366;
}

object node {
     name "P98";
     phases ABC;
     nominal_voltage 8366;
}

object node {
     name "P99";
     phases ABC;
     nominal_voltage 8366;
}

object node {
     name "P100";
     phases ABC;
     nominal_voltage 8366;
}

object node {
     name "P101";
     phases ABC;
     nominal_voltage 8366;
}

object node {
     name "P102";
     phases ABC;
     nominal_voltage 8366;
}

object node {
     name "P103";
     phases ABC;
     nominal_voltage 8366;
}

object node {
     name "P104";
     phases ABC;
     nominal_voltage 8366;
}

object node {
     name "P105";
     phases ABC;
     nominal_voltage 8366;
}

object node {
     name "P106";
     phases ABC;
     nominal_voltage 8366;
}

object node {
     name "P107";
     phases ABC;
     nominal_voltage 8366;
}

object node {
     name "P108";
     phases ABC;
     nominal_voltage 8366;
}

object node {
     name "P109";
     phases ABC;
     nominal_voltage 8366;
}

object node {
     name "P110";
     phases ABC;
     nominal_voltage 8366;
}

object node {
     name "P111";
     phases ABC;
     nominal_voltage 8366;
}

object node {
     name "P112";
     phases ABC;
     nominal_voltage 8366;
}

object node {
     name "P113";
     phases ABC;
     nominal_voltage 8366;
}

object node {
     name "P114";
     phases ABC;
     nominal_voltage 8366;
}

object node {
     name "P115";
     phases ABC;
     nominal_voltage 8366;
}

object node {
     name "P116";
     phases ABC;
     nominal_voltage 8366;
}

object node {
     name "P117";
     phases ABC;
     nominal_voltage 8366;
}

object node {
     name "P118";
     phases ABC;
     nominal_voltage 8366;
}

object node {
     name "P119";
     phases ABC;
     nominal_voltage 8366;
}

object node {
     name "P120";
     phases ABC;
     nominal_voltage 8366;
}

object node {
     name "P121";
     phases ABC;
     nominal_voltage 8366;
}

object node {
     name "P122";
     phases ABC;
     nominal_voltage 8366;
}

object node {
     name "P123";
     phases ABC;
     nominal_voltage 8366;
}

object node {
     name "P124";
     phases ABC;
     nominal_voltage 8366;
}

object node {
     name "P125";
     phases ABC;
     nominal_voltage 8366;
}

object node {
     name "P126";
     phases ABC;
     nominal_voltage 8366;
}

object node {
     name "P127";
     phases ABC;
     nominal_voltage 8366;
}

object node {
     name "P128";
     phases ABC;
     nominal_voltage 8366;
}

object node {
     name "P129";
     phases ABC;
     nominal_voltage 8366;
}

object node {
     name "P130";
     phases ABC;
     nominal_voltage 8366;
}

object node {
     name "P131";
     phases ABC;
     nominal_voltage 8366;
}

object node {
     name "P132";
     phases ABC;
     nominal_voltage 8366;
}

object node {
     name "P133";
     phases ABC;
     nominal_voltage 8366;
}

object node {
     name "P134";
     phases ABC;
     nominal_voltage 8366;
}

object node {
     name "P135";
     phases ABC;
     nominal_voltage 8366;
}

object node {
     name "P136";
     phases ABC;
     nominal_voltage 8366;
}

object node {
     name "P137";
     phases ABC;
     nominal_voltage 8366;
}

object node {
     name "P138";
     phases ABC;
     nominal_voltage 8366;
}

object node {
     name "P139";
     phases ABC;
     nominal_voltage 8366;
}

object node {
     name "P140";
     phases ABC;
     nominal_voltage 8366;
}

object node {
     name "P141";
     phases ABC;
     nominal_voltage 8366;
}

object node {
     name "P142";
     phases ABC;
     nominal_voltage 8366;
}

object node {
     name "P143";
     phases ABC;
     nominal_voltage 8366;
}

object node {
     name "P144";
     phases ABC;
     nominal_voltage 8366;
}

object node {
     name "P145";
     phases ABC;
     nominal_voltage 8366;
}

object node {
     name "P146";
     phases ABC;
     nominal_voltage 8366;
}

object node {
     name "P147";
     phases ABC;
     nominal_voltage 8366;
}

object node {
     name "P148";
     phases ABC;
     nominal_voltage 8366;
}

object node {
     name "P149";
     phases ABC;
     nominal_voltage 8366;
}

object node {
     name "P150";
     phases ABC;
     nominal_voltage 8366;
}

object load {
     name "S1";
     phases ABCN;
     nominal_voltage 120;
     constant_power_A 16110.00+5295.10j;
     constant_power_B 11280.00+4094.09j;
     constant_power_C 15300.00+6517.77j;
     constant_power_AB 32440.00+23486.15j;
     constant_power_BC 34690.00+29665.57j;
     constant_power_CA 35710.00+27713.98j;
}

object load {
     name "S2";
     phases ABCN;
     nominal_voltage 120;
     constant_power_A 12120.00+4790.13j;
     constant_power_B 12590.00+4975.89j;
     constant_power_C 11450.00+2325.02j;
     constant_power_AB 29830.00+23932.05j;
     constant_power_BC 34510.00+23190.86j;
     constant_power_CA 35700.00+28641.45j;
}

object load {
     name "S3";
     phases ABCN;
     nominal_voltage 120;
     constant_power_A 15590.00+7103.01j;
     constant_power_B 12000.00+3007.48j;
     constant_power_C 11900.00+1695.66j;
     constant_power_AB 35180.00+23641.10j;
     constant_power_BC 30710.00+23032.50j;
     constant_power_CA 32330.00+23406.52j;
}

object node {
     name "S4";
     phases ABCN;
     nominal_voltage 120;
}

object load {
     name "S5";
     phases ABCN;
     nominal_voltage 120;
     constant_power_A 16100.00+6363.13j;
     constant_power_B 15520.00+5101.18j;
     constant_power_C 13300.00+4827.26j;
     constant_power_AB 27990.00+18809.39j;
     constant_power_BC 34210.00+27446.05j;
     constant_power_CA 28450.00+23574.48j;
}

object load {
     name "S6";
     phases ABCN;
     nominal_voltage 120;
     constant_power_A 15480.00+3143.35j;
     constant_power_B 12080.00+3523.33j;
     constant_power_C 13380.00+0.00j;
     constant_power_AB 28930.00+21697.50j;
     constant_power_BC 31920.00+26449.82j;
     constant_power_CA 33130.00+26579.58j;
}

object load {
     name "S7";
     phases ABCN;
     nominal_voltage 120;
     constant_power_A 12660.00+5768.07j;
     constant_power_B 13140.00+4318.91j;
     constant_power_C 13760.00+1960.69j;
     constant_power_AB 30270.00+25082.58j;
     constant_power_BC 34890.00+27077.59j;
     constant_power_CA 31740.00+25464.41j;
}

object load {
     name "S8";
     phases ABCN;
     nominal_voltage 120;
     constant_power_A 13930.00+5505.49j;
     constant_power_B 13060.00+1860.95j;
     constant_power_C 14970.00+6820.53j;
     constant_power_AB 27750.00+22263.31j;
     constant_power_BC 31780.00+21356.29j;
     constant_power_CA 35140.00+23614.22j;
}

object node {
     name "S9";
     phases ABCN;
     nominal_voltage 120;
}

object load {
     name "S10";
     phases ABCN;
     nominal_voltage 120;
     constant_power_A 12640.00+3686.67j;
     constant_power_B 13590.00+3963.75j;
     constant_power_C 12040.00+5485.59j;
     constant_power_AB 35540.00+30392.46j;
     constant_power_BC 34640.00+24178.87j;
     constant_power_CA 26300.00+21792.93j;
}

object load {
     name "S11";
     phases ABCN;
     nominal_voltage 120;
     constant_power_A 11720.00+2379.85j;
     constant_power_B 14340.00+6533.50j;
     constant_power_C 12570.00+3666.25j;
     constant_power_AB 28590.00+19955.94j;
     constant_power_BC 35810.00+26857.50j;
     constant_power_CA 29030.00+21017.36j;
}

object load {
     name "S12";
     phases ABCN;
     nominal_voltage 120;
     constant_power_A 15650.00+7130.35j;
     constant_power_B 14770.00+0.00j;
     constant_power_C 11730.00+2939.82j;
     constant_power_AB 30470.00+20475.96j;
     constant_power_BC 34060.00+22888.46j;
     constant_power_CA 28340.00+21255.00j;
}

object load {
     name "S13";
     phases ABCN;
     nominal_voltage 120;
     constant_power_A 15740.00+5712.86j;
     constant_power_B 13470.00+4427.37j;
     constant_power_C 15210.00+5520.49j;
     constant_power_AB 30600.00+24549.81j;
     constant_power_BC 33970.00+21942.45j;
     constant_power_CA 33370.00+23292.40j;
}

object node {
     name "S14";
     phases ABCN;
     nominal_voltage 120;
}

object load {
     name "S15";
     phases ABCN;
     nominal_voltage 120;
     constant_power_A 16130.00+4042.56j;
     constant_power_B 12660.00+0.00j;
     constant_power_C 14310.00+2039.06j;
     constant_power_AB 28370.00+19064.76j;
     constant_power_BC 33630.00+22599.50j;
     constant_power_CA 30780.00+23887.88j;
}

object load {
     name "S16";
     phases ABCN;
     nominal_voltage 120;
     constant_power_A 13540.00+3393.44j;
     constant_power_B 13050.00+4289.33j;
     constant_power_C 13720.00+4979.70j;
     constant_power_AB 35730.00+25868.07j;
     constant_power_BC 30730.00+20650.69j;
     constant_power_CA 33050.00+23927.79j;
}

object load {
     name "S17";
     phases ABCN;
     nominal_voltage 120;
     constant_power_A 13450.00+3370.89j;
     constant_power_B 11680.00+2927.28j;
     constant_power_C 12860.00+6228.38j;
     constant_power_AB 33050.00+27386.17j;
     constant_power_BC 34360.00+28471.67j;
     constant_power_CA 27450.00+19873.46j;
}

object load {
     name "S18";
     phases ABCN;
     nominal_voltage 120;
     constant_power_A 16050.00+4681.25j;
     constant_power_B 14810.00+3711.74j;
     constant_power_C 15430.00+0.00j;
     constant_power_AB 32330.00+24247.50j;
     constant_power_BC 32970.00+23013.20j;
     constant_power_CA 29700.00+24610.26j;
}

object load {
     name "S19";
     phases ABCN;
     nominal_voltage 120;
     constant_power_A 11350.00+4485.81j;
     constant_power_B 14020.00+3513.74j;
     constant_power_C 15380.00+6078.56j;
     constant_power_AB 33610.00+26964.68j;
     constant_power_BC 36040.00+27970.09j;
     constant_power_CA 27900.00+19474.32j;
}

object load {
     name "S20";
     phases ABCN;
     nominal_voltage 120;
     constant_power_A 15800.00+2251.38j;
     constant_power_B 13980.00+6369.48j;
     constant_power_C 12900.00+5098.41j;
     constant_power_AB 28110.00+24038.60j;
     constant_power_BC 31400.00+25191.64j;
     constant_power_CA 34790.00+24283.57j;
}

object load {
     name "S21";
     phases ABCN;
     nominal_voltage 120;
     constant_power_A 16290.00+5354.26j;
     constant_power_B 13810.00+6292.02j;
     constant_power_C 13050.00+3270.64j;
     constant_power_AB 30120.00+20240.76j;
     constant_power_BC 31940.00+23955.00j;
     constant_power_CA 36380.00+29187.00j;
}

object load {
     name "S22";
     phases ABCN;
     nominal_voltage 120;
     constant_power_A 14730.00+6711.19j;
     constant_power_B 12070.00+4770.37j;
     constant_power_C 13300.00+2700.68j;
     constant_power_AB 36120.00+25211.92j;
     constant_power_BC 33910.00+26317.03j;
     constant_power_CA 34940.00+25296.12j;
}

object load {
     name "S23";
     phases ABCN;
     nominal_voltage 120;
     constant_power_A 41670.00+10443.49j;
     constant_power_B 44080.00+17421.53j;
     constant_power_C 34470.00+6999.43j;
     constant_power_AB 101570.00+73535.41j;
     constant_power_BC 113380.00+79139.73j;
     constant_power_CA 97230.00+80567.54j;
}

object load {
     name "S24";
     phases ABCN;
     nominal_voltage 120;
     constant_power_A 34330.00+12460.13j;
     constant_power_B 42830.00+14077.54j;
     constant_power_C 46080.00+19630.00j;
     constant_power_AB 84090.00+71910.57j;
     constant_power_BC 98490.00+73867.50j;
     constant_power_CA 85750.00+66549.26j;
}

object load {
     name "S25";
     phases ABCN;
     nominal_voltage 120;
     constant_power_A 36480.00+17668.07j;
     constant_power_B 47230.00+9590.46j;
     constant_power_C 46740.00+6660.09j;
     constant_power_AB 101510.00+70854.42j;
     constant_power_BC 109370.00+87745.52j;
     constant_power_CA 97870.00+81097.86j;
}

object load {
     name "S26";
     phases ABCN;
     nominal_voltage 120;
     constant_power_A 16410.00+6990.63j;
     constant_power_B 12290.00+5235.52j;
     constant_power_C 14770.00+4854.66j;
     constant_power_AB 26870.00+20853.39j;
     constant_power_BC 31650.00+25392.21j;
     constant_power_CA 37400.00+28050.00j;
}

object node {
     name "S27";
     phases ABCN;
     nominal_voltage 120;
}

object node {
     name "S28";
     phases ABCN;
     nominal_voltage 120;
}

object node {
     name "S29";
     phases ABCN;
     nominal_voltage 120;
}

object node {
     name "S30";
     phases ABCN;
     nominal_voltage 120;
}

object load {
     name "S31";
     phases ABCN;
     nominal_voltage 120;
     constant_power_A 13350.00+2710.83j;
     constant_power_B 14570.00+6206.79j;
     constant_power_C 13730.00+5848.96j;
     constant_power_AB 37070.00+27802.50j;
     constant_power_BC 33430.00+21593.65j;
     constant_power_CA 32150.00+26640.40j;
}

object load {
     name "S32";
     phases ABCN;
     nominal_voltage 120;
     constant_power_A 11650.00+4228.39j;
     constant_power_B 12160.00+5180.14j;
     constant_power_C 13060.00+5563.54j;
     constant_power_AB 30790.00+21491.55j;
     constant_power_BC 30400.00+23592.97j;
     constant_power_CA 28330.00+21247.50j;
}

object node {
     name "S33";
     phases ABCN;
     nominal_voltage 120;
}

object node {
     name "S34";
     phases ABCN;
     nominal_voltage 120;
}

object node {
     name "S35";
     phases ABCN;
     nominal_voltage 120;
}

object node {
     name "S36";
     phases ABCN;
     nominal_voltage 120;
}

object load {
     name "S37";
     phases ABCN;
     nominal_voltage 120;
     constant_power_A 14790.00+6300.51j;
     constant_power_B 12710.00+3185.43j;
     constant_power_C 14390.00+2050.46j;
     constant_power_AB 37320.00+27019.21j;
     constant_power_BC 36930.00+24817.11j;
     constant_power_CA 34430.00+28529.68j;
}

object load {
     name "S38";
     phases ABCN;
     nominal_voltage 120;
     constant_power_A 50330.00+21440.49j;
     constant_power_B 55550.00+21954.76j;
     constant_power_C 51740.00+10506.26j;
     constant_power_AB 111430.00+86479.11j;
     constant_power_BC 126130.00+91316.54j;
     constant_power_CA 108740.00+75900.99j;
}

object load {
     name "S39";
     phases ABCN;
     nominal_voltage 120;
     constant_power_A 55530.00+20154.70j;
     constant_power_B 41970.00+0.00j;
     constant_power_C 54850.00+18028.32j;
     constant_power_AB 131700.00+109130.36j;
     constant_power_BC 102860.00+85232.72j;
     constant_power_CA 100920.00+70442.59j;
}

object load {
     name "S40";
     phases ABCN;
     nominal_voltage 120;
     constant_power_A 50670.00+18390.75j;
     constant_power_B 51210.00+12834.44j;
     constant_power_C 46990.00+21409.28j;
     constant_power_AB 133470.00+93162.63j;
     constant_power_BC 137920.00+92682.80j;
     constant_power_CA 138710.00+96820.18j;
}

object load {
     name "S41";
     phases ABCN;
     nominal_voltage 120;
     constant_power_A 14480.00+6597.28j;
     constant_power_B 15580.00+6157.61j;
     constant_power_C 12830.00+2605.24j;
     constant_power_AB 33870.00+23641.41j;
     constant_power_BC 32610.00+21063.98j;
     constant_power_CA 30700.00+20630.53j;
}

object load {
     name "S42";
     phases ABCN;
     nominal_voltage 120;
     constant_power_A 28950.00+10507.45j;
     constant_power_B 23630.00+5922.24j;
     constant_power_C 28130.00+4008.31j;
     constant_power_AB 72320.00+52358.78j;
     constant_power_BC 60670.00+50272.89j;
     constant_power_CA 69800.00+46905.89j;
}

object load {
     name "S43";
     phases ABCN;
     nominal_voltage 120;
     constant_power_A 24590.00+6162.83j;
     constant_power_B 25810.00+0.00j;
     constant_power_C 26970.00+8864.61j;
     constant_power_AB 64920.00+43626.51j;
     constant_power_BC 65390.00+54184.01j;
     constant_power_CA 63610.00+42746.18j;
}

object node {
     name "S44";
     phases ABCN;
     nominal_voltage 120;
}

object node {
     name "S45";
     phases ABCN;
     nominal_voltage 120;
}

object load {
     name "S46";
     phases ABCN;
     nominal_voltage 120;
     constant_power_A 46340.00+13515.83j;
     constant_power_B 47650.00+13897.92j;
     constant_power_C 45080.00+14817.08j;
     constant_power_AB 119880.00+93037.02j;
     constant_power_BC 117600.00+85140.93j;
     constant_power_CA 112170.00+78295.14j;
}

object load {
     name "S47";
     phases ABCN;
     nominal_voltage 120;
     constant_power_A 54560.00+24858.27j;
     constant_power_B 48850.00+9919.42j;
     constant_power_C 49340.00+16217.27j;
     constant_power_AB 119480.00+92726.59j;
     constant_power_BC 136410.00+105865.70j;
     constant_power_CA 126020.00+87962.50j;
}

object load {
     name "S48";
     phases ABCN;
     nominal_voltage 120;
     constant_power_A 60610.00+27614.73j;
     constant_power_B 51620.00+12937.19j;
     constant_power_C 53050.00+13295.58j;
     constant_power_AB 115730.00+83787.07j;
     constant_power_BC 123570.00+83039.54j;
     constant_power_CA 131510.00+98632.50j;
}

object node {
     name "S49";
     phases ABCN;
     nominal_voltage 120;
}

object node {
     name "S50";
     phases ABCN;
     nominal_voltage 120;
}

object load {
     name "S51";
     phases ABCN;
     nominal_voltage 120;
     constant_power_A 46640.00+18433.31j;
     constant_power_B 44820.00+17714.00j;
     constant_power_C 54850.00+21678.11j;
     constant_power_AB 109390.00+82042.50j;
     constant_power_BC 135190.00+115609.34j;
     constant_power_CA 117660.00+79068.00j;
}

object load {
     name "S52";
     phases ABCN;
     nominal_voltage 120;
     constant_power_A 45060.00+19195.48j;
     constant_power_B 44960.00+14777.64j;
     constant_power_C 43750.00+15879.13j;
     constant_power_AB 118950.00+83027.61j;
     constant_power_BC 115350.00+89521.36j;
     constant_power_CA 118190.00+85568.08j;
}

object load {
     name "S53";
     phases ABCN;
     nominal_voltage 120;
     constant_power_A 49150.00+7003.50j;
     constant_power_B 51840.00+22083.75j;
     constant_power_C 46560.00+6634.44j;
     constant_power_AB 107230.00+72059.00j;
     constant_power_BC 98130.00+68495.16j;
     constant_power_CA 108480.00+84189.66j;
}

object node {
     name "S54";
     phases ABCN;
     nominal_voltage 120;
}

object node {
     name "S55";
     phases ABCN;
     nominal_voltage 120;
}

object load {
     name "S56";
     phases ABCN;
     nominal_voltage 120;
     constant_power_A 41450.00+15044.34j;
     constant_power_B 52450.00+22343.61j;
     constant_power_C 42660.00+18173.08j;
     constant_power_AB 111580.00+89518.56j;
     constant_power_BC 125950.00+84638.91j;
     constant_power_CA 114430.00+73914.48j;
}

object load {
     name "S57";
     phases ABCN;
     nominal_voltage 120;
     constant_power_A 51440.00+12892.08j;
     constant_power_B 51900.00+0.00j;
     constant_power_C 52650.00+17305.22j;
     constant_power_AB 136780.00+102585.00j;
     constant_power_BC 130060.00+104344.72j;
     constant_power_CA 132480.00+99360.00j;
}

object load {
     name "S58";
     phases ABCN;
     nominal_voltage 120;
     constant_power_A 58400.00+24878.30j;
     constant_power_B 45120.00+11308.14j;
     constant_power_C 49060.00+14309.17j;
     constant_power_AB 104870.00+70473.07j;
     constant_power_BC 109530.00+79298.35j;
     constant_power_CA 106220.00+88016.91j;
}

object node {
     name "S59";
     phases ABCN;
     nominal_voltage 120;
}

object node {
     name "S60";
     phases ABCN;
     nominal_voltage 120;
}

object load {
     name "S61";
     phases ABCN;
     nominal_voltage 120;
     constant_power_A 24390.00+8852.39j;
     constant_power_B 22950.00+6693.75j;
     constant_power_C 21860.00+6375.83j;
     constant_power_AB 59210.00+39789.36j;
     constant_power_BC 59660.00+47864.11j;
     constant_power_CA 70380.00+49125.54j;
}

object load {
     name "S62";
     phases ABCN;
     nominal_voltage 120;
     constant_power_A 12680.00+4602.23j;
     constant_power_B 13220.00+4798.22j;
     constant_power_C 11860.00+5403.58j;
     constant_power_AB 32280.00+22531.58j;
     constant_power_BC 34950.00+23486.54j;
     constant_power_CA 29750.00+23088.52j;
}

object load {
     name "S63";
     phases ABCN;
     nominal_voltage 120;
     constant_power_A 13060.00+4740.15j;
     constant_power_B 11520.00+4907.50j;
     constant_power_C 15280.00+6961.77j;
     constant_power_AB 35060.00+29051.71j;
     constant_power_BC 31530.00+20366.37j;
     constant_power_CA 32360.00+22587.42j;
}

object load {
     name "S64";
     phases ABCN;
     nominal_voltage 120;
     constant_power_A 54280.00+23123.18j;
     constant_power_B 48220.00+9791.49j;
     constant_power_C 43590.00+8851.33j;
     constant_power_AB 125890.00+91142.79j;
     constant_power_BC 120310.00+93370.74j;
     constant_power_CA 122470.00+85484.59j;
}

object load {
     name "S65";
     phases ABCN;
     nominal_voltage 120;
     constant_power_A 45340.00+14902.54j;
     constant_power_B 48490.00+6909.45j;
     constant_power_C 54020.00+7697.43j;
     constant_power_AB 105360.00+90099.86j;
     constant_power_BC 122000.00+91500.00j;
     constant_power_CA 124940.00+90455.00j;
}

object load {
     name "S66";
     phases ABCN;
     nominal_voltage 120;
     constant_power_A 42670.00+12445.42j;
     constant_power_B 44750.00+9086.88j;
     constant_power_C 53420.00+15580.83j;
     constant_power_AB 125460.00+103959.72j;
     constant_power_BC 126260.00+97988.44j;
     constant_power_CA 115650.00+77717.27j;
}

object load {
     name "S67";
     phases ABCN;
     nominal_voltage 120;
     constant_power_A 15890.00+5767.30j;
     constant_power_B 12320.00+5248.30j;
     constant_power_C 13710.00+5418.54j;
     constant_power_AB 34860.00+25238.20j;
     constant_power_BC 31690.00+21295.81j;
     constant_power_CA 35290.00+25549.52j;
}

object node {
     name "S68";
     phases ABCN;
     nominal_voltage 120;
}

object node {
     name "S69";
     phases ABCN;
     nominal_voltage 120;
}

object node {
     name "S70";
     phases ABCN;
     nominal_voltage 120;
}

object node {
     name "S71";
     phases ABCN;
     nominal_voltage 120;
}

object load {
     name "S72";
     phases ABCN;
     nominal_voltage 120;
     constant_power_A 11810.00+2959.87j;
     constant_power_B 13580.00+6187.23j;
     constant_power_C 15460.00+2202.93j;
     constant_power_AB 26980.00+22356.39j;
     constant_power_BC 30490.00+22867.50j;
     constant_power_CA 30710.00+23833.56j;
}

object load {
     name "S73";
     phases ABCN;
     nominal_voltage 120;
     constant_power_A 12070.00+1719.88j;
     constant_power_B 12470.00+4098.69j;
     constant_power_C 12480.00+2534.17j;
     constant_power_AB 34720.00+29691.22j;
     constant_power_BC 31960.00+26482.96j;
     constant_power_CA 31400.00+24369.06j;
}

object node {
     name "S74";
     phases ABCN;
     nominal_voltage 120;
}

object node {
     name "S75";
     phases ABCN;
     nominal_voltage 120;
}

object node {
     name "S76";
     phases ABCN;
     nominal_voltage 120;
}

object node {
     name "S77";
     phases ABCN;
     nominal_voltage 120;
}

object load {
     name "S78";
     phases ABCN;
     nominal_voltage 120;
     constant_power_A 15290.00+2178.71j;
     constant_power_B 14960.00+6815.98j;
     constant_power_C 12600.00+5740.73j;
     constant_power_AB 33500.00+23383.14j;
     constant_power_BC 31460.00+23595.00j;
     constant_power_CA 34090.00+26456.72j;
}

object load {
     name "S79";
     phases ABCN;
     nominal_voltage 120;
     constant_power_A 39080.00+12844.97j;
     constant_power_B 35840.00+14164.87j;
     constant_power_C 35530.00+11678.15j;
     constant_power_AB 98600.00+66259.60j;
     constant_power_BC 87850.00+56745.49j;
     constant_power_CA 94070.00+80445.08j;
}

object load {
     name "S80";
     phases ABCN;
     nominal_voltage 120;
     constant_power_A 54970.00+25045.07j;
     constant_power_B 45980.00+20949.11j;
     constant_power_C 44050.00+8944.73j;
     constant_power_AB 104060.00+75338.14j;
     constant_power_BC 121400.00+91050.00j;
     constant_power_CA 111200.00+92143.48j;
}

object load {
     name "S81";
     phases ABCN;
     nominal_voltage 120;
     constant_power_A 68100.00+17067.47j;
     constant_power_B 64430.00+18792.08j;
     constant_power_C 52550.00+7487.97j;
     constant_power_AB 138660.00+103995.00j;
     constant_power_BC 132130.00+109486.67j;
     constant_power_CA 133970.00+96992.61j;
}

object load {
     name "S82";
     phases ABCN;
     nominal_voltage 120;
     constant_power_A 17300.00+5686.24j;
     constant_power_B 14440.00+6151.41j;
     constant_power_C 12520.00+5333.50j;
     constant_power_AB 30270.00+25082.58j;
     constant_power_BC 33290.00+24967.50j;
     constant_power_CA 33370.00+24159.46j;
}

object load {
     name "S83";
     phases ABCN;
     nominal_voltage 120;
     constant_power_A 14760.00+2103.19j;
     constant_power_B 13060.00+3809.17j;
     constant_power_C 12020.00+2440.77j;
     constant_power_AB 35750.00+26812.50j;
     constant_power_BC 36620.00+27465.00j;
     constant_power_CA 29580.00+22185.00j;
}

object load {
     name "S84";
     phases ABCN;
     nominal_voltage 120;
     constant_power_A 32900.00+10813.71j;
     constant_power_B 46570.00+13582.92j;
     constant_power_C 46650.00+13606.25j;
     constant_power_AB 91640.00+75935.51j;
     constant_power_BC 94900.00+71175.00j;
     constant_power_CA 109530.00+87873.88j;
}

object node {
     name "S85";
     phases ABCN;
     nominal_voltage 120;
}

object node {
     name "S86";
     phases ABCN;
     nominal_voltage 120;
}

object load {
     name "S87";
     phases ABCN;
     nominal_voltage 120;
     constant_power_A 45800.00+19510.72j;
     constant_power_B 35410.00+10327.92j;
     constant_power_C 36860.00+17852.11j;
     constant_power_AB 92240.00+61985.66j;
     constant_power_BC 83060.00+68825.88j;
     constant_power_CA 86450.00+62588.72j;
}

object load {
     name "S88";
     phases ABCN;
     nominal_voltage 120;
     constant_power_A 49030.00+12288.08j;
     constant_power_B 48290.00+19085.43j;
     constant_power_C 49640.00+19618.98j;
     constant_power_AB 130130.00+104400.88j;
     constant_power_BC 144170.00+100631.28j;
     constant_power_CA 140750.00+98244.10j;
}

object load {
     name "S89";
     phases ABCN;
     nominal_voltage 120;
     constant_power_A 38000.00+9523.70j;
     constant_power_B 49550.00+7060.49j;
     constant_power_C 48750.00+16023.35j;
     constant_power_AB 121250.00+81480.50j;
     constant_power_BC 107770.00+92160.80j;
     constant_power_CA 125350.00+84235.71j;
}

object node {
     name "S90";
     phases ABCN;
     nominal_voltage 120;
}

object node {
     name "S91";
     phases ABCN;
     nominal_voltage 120;
}

object load {
     name "S92";
     phases ABCN;
     nominal_voltage 120;
     constant_power_A 53370.00+17541.87j;
     constant_power_B 49150.00+12318.15j;
     constant_power_C 46060.00+18204.08j;
     constant_power_AB 114190.00+94621.08j;
     constant_power_BC 116180.00+84112.87j;
     constant_power_CA 111200.00+77618.08j;
}

object load {
     name "S93";
     phases ABCN;
     nominal_voltage 120;
     constant_power_A 46310.00+13507.08j;
     constant_power_B 54300.00+7737.33j;
     constant_power_C 47130.00+9570.15j;
     constant_power_AB 108930.00+76033.61j;
     constant_power_BC 107460.00+72213.56j;
     constant_power_CA 105160.00+73402.13j;
}

object load {
     name "S94";
     phases ABCN;
     nominal_voltage 120;
     constant_power_A 46850.00+6675.76j;
     constant_power_B 47530.00+13862.92j;
     constant_power_C 40730.00+16097.53j;
     constant_power_AB 116000.00+93064.65j;
     constant_power_BC 112350.00+75499.66j;
     constant_power_CA 105060.00+87055.70j;
}

object node {
     name "S95";
     phases ABCN;
     nominal_voltage 120;
}

object node {
     name "S96";
     phases ABCN;
     nominal_voltage 120;
}

object load {
     name "S97";
     phases ABCN;
     nominal_voltage 120;
     constant_power_A 29940.00+11833.05j;
     constant_power_B 34540.00+7013.65j;
     constant_power_C 27650.00+0.00j;
     constant_power_AB 88650.00+66487.50j;
     constant_power_BC 78560.00+67181.52j;
     constant_power_CA 76200.00+63141.49j;
}

object load {
     name "S98";
     phases ABCN;
     nominal_voltage 120;
     constant_power_A 40470.00+13301.85j;
     constant_power_B 36750.00+12079.14j;
     constant_power_C 38090.00+7734.50j;
     constant_power_AB 87210.00+67682.34j;
     constant_power_BC 85780.00+68819.70j;
     constant_power_CA 91100.00+70701.31j;
}

object load {
     name "S99";
     phases ABCN;
     nominal_voltage 120;
     constant_power_A 39980.00+8118.29j;
     constant_power_B 35850.00+8984.86j;
     constant_power_C 29330.00+12494.53j;
     constant_power_AB 76510.00+65428.44j;
     constant_power_BC 80540.00+54123.21j;
     constant_power_CA 91370.00+59019.19j;
}

object node {
     name "S100";
     phases ABCN;
     nominal_voltage 120;
}

object node {
     name "S101";
     phases ABCN;
     nominal_voltage 120;
}

object load {
     name "S102";
     phases ABCN;
     nominal_voltage 120;
     constant_power_A 25620.00+10125.67j;
     constant_power_B 30270.00+12894.97j;
     constant_power_C 28270.00+7085.13j;
     constant_power_AB 70130.00+59972.51j;
     constant_power_BC 65970.00+46047.34j;
     constant_power_CA 63650.00+46081.80j;
}

object load {
     name "S103";
     phases ABCN;
     nominal_voltage 120;
     constant_power_A 11710.00+4988.44j;
     constant_power_B 13030.00+5149.79j;
     constant_power_C 13550.00+4453.67j;
     constant_power_AB 31970.00+21483.97j;
     constant_power_BC 33810.00+24478.02j;
     constant_power_CA 33080.00+27411.03j;
}

object load {
     name "S104";
     phases ABCN;
     nominal_voltage 120;
     constant_power_A 13870.00+5908.60j;
     constant_power_B 12710.00+3185.43j;
     constant_power_C 13160.00+5995.87j;
     constant_power_AB 30440.00+24421.45j;
     constant_power_BC 30330.00+25937.06j;
     constant_power_CA 31120.00+23340.00j;
}

object load {
     name "S105";
     phases ABCN;
     nominal_voltage 120;
     constant_power_A 41400.00+17636.33j;
     constant_power_B 43960.00+18726.88j;
     constant_power_C 33700.00+15354.17j;
     constant_power_AB 99230.00+79610.39j;
     constant_power_BC 82350.00+61762.50j;
     constant_power_CA 96230.00+67168.95j;
}

object load {
     name "S106";
     phases ABCN;
     nominal_voltage 120;
     constant_power_A 40290.00+8181.23j;
     constant_power_B 54790.00+11125.58j;
     constant_power_C 46930.00+21381.94j;
     constant_power_AB 119140.00+98722.79j;
     constant_power_BC 118630.00+82804.25j;
     constant_power_CA 108700.00+70213.26j;
}

object load {
     name "S107";
     phases ABCN;
     nominal_voltage 120;
     constant_power_A 53320.00+13363.25j;
     constant_power_B 45650.00+19446.82j;
     constant_power_C 48960.00+20856.87j;
     constant_power_AB 105770.00+68320.67j;
     constant_power_BC 126810.00+95107.50j;
     constant_power_CA 113860.00+73546.29j;
}

object load {
     name "S108";
     phases ABCN;
     nominal_voltage 120;
     constant_power_A 14940.00+2128.83j;
     constant_power_B 12380.00+4069.11j;
     constant_power_C 12120.00+4398.97j;
     constant_power_AB 32700.00+26234.60j;
     constant_power_BC 33050.00+26515.40j;
     constant_power_CA 31330.00+23497.50j;
}

object node {
     name "S109";
     phases ABCN;
     nominal_voltage 120;
}

object node {
     name "S110";
     phases ABCN;
     nominal_voltage 120;
}

object node {
     name "S111";
     phases ABCN;
     nominal_voltage 120;
}

object node {
     name "S112";
     phases ABCN;
     nominal_voltage 120;
}

object load {
     name "S113";
     phases ABCN;
     nominal_voltage 120;
     constant_power_A 14060.00+6405.93j;
     constant_power_B 12100.00+0.00j;
     constant_power_C 14020.00+6387.70j;
     constant_power_AB 31510.00+22812.85j;
     constant_power_BC 32220.00+26698.41j;
     constant_power_CA 30090.00+24933.43j;
}

object load {
     name "S114";
     phases ABCN;
     nominal_voltage 120;
     constant_power_A 12170.00+4417.12j;
     constant_power_B 15600.00+3167.72j;
     constant_power_C 14220.00+3563.87j;
     constant_power_AB 29890.00+23197.17j;
     constant_power_BC 36290.00+23441.02j;
     constant_power_CA 31530.00+23647.50j;
}

object node {
     name "S115";
     phases ABCN;
     nominal_voltage 120;
}

object node {
     name "S116";
     phases ABCN;
     nominal_voltage 120;
}

object node {
     name "S117";
     phases ABCN;
     nominal_voltage 120;
}

object node {
     name "S118";
     phases ABCN;
     nominal_voltage 120;
}

object node {
     name "S119";
     phases ABCN;
     nominal_voltage 120;
}

object load {
     name "S120";
     phases ABCN;
     nominal_voltage 120;
     constant_power_A 47360.00+18717.87j;
     constant_power_B 36760.00+16748.35j;
     constant_power_C 38020.00+17322.42j;
     constant_power_AB 92720.00+67128.12j;
     constant_power_BC 93460.00+72532.87j;
     constant_power_CA 93330.00+67569.75j;
}

object load {
     name "S121";
     phases ABCN;
     nominal_voltage 120;
     constant_power_A 35990.00+5128.30j;
     constant_power_B 33870.00+14428.56j;
     constant_power_C 38450.00+13955.49j;
     constant_power_AB 108000.00+78190.65j;
     constant_power_BC 87530.00+67930.69j;
     constant_power_CA 98290.00+63489.07j;
}

object load {
     name "S122";
     phases ABCN;
     nominal_voltage 120;
     constant_power_A 45210.00+20598.28j;
     constant_power_B 44470.00+9030.02j;
     constant_power_C 43610.00+10929.70j;
     constant_power_AB 113680.00+73430.03j;
     constant_power_BC 92630.00+69472.50j;
     constant_power_CA 104750.00+89578.21j;
}

object load {
     name "S123";
     phases ABCN;
     nominal_voltage 120;
     constant_power_A 13310.00+4374.79j;
     constant_power_B 13050.00+5157.69j;
     constant_power_C 13710.00+3998.75j;
     constant_power_AB 33850.00+23627.45j;
     constant_power_BC 37880.00+27424.65j;
     constant_power_CA 37590.00+31148.14j;
}

object load {
     name "S124";
     phases ABCN;
     nominal_voltage 120;
     constant_power_A 16690.00+4867.92j;
     constant_power_B 12230.00+1742.68j;
     constant_power_C 16190.00+3287.52j;
     constant_power_AB 34550.00+26813.72j;
     constant_power_BC 29380.00+24345.10j;
     constant_power_CA 29050.00+21787.50j;
}

object load {
     name "S125";
     phases ABCN;
     nominal_voltage 120;
     constant_power_A 12400.00+5649.61j;
     constant_power_B 12870.00+5863.75j;
     constant_power_C 14350.00+2044.76j;
     constant_power_AB 31180.00+25836.63j;
     constant_power_BC 29220.00+21154.91j;
     constant_power_CA 29420.00+23603.12j;
}

object node {
     name "S126";
     phases ABCN;
     nominal_voltage 120;
}

object load {
     name "S127";
     phases ABCN;
     nominal_voltage 120;
     constant_power_A 17740.00+7557.21j;
     constant_power_B 12200.00+5197.18j;
     constant_power_C 14880.00+6779.53j;
     constant_power_AB 33060.00+28271.65j;
     constant_power_BC 35590.00+29490.89j;
     constant_power_CA 28840.00+20130.44j;
}

object load {
     name "S128";
     phases ABCN;
     nominal_voltage 120;
     constant_power_A 13530.00+4447.10j;
     constant_power_B 13650.00+3981.25j;
     constant_power_C 15180.00+3804.47j;
     constant_power_AB 32540.00+22713.06j;
     constant_power_BC 27980.00+20257.17j;
     constant_power_CA 34210.00+27446.05j;
}

object load {
     name "S129";
     phases ABCN;
     nominal_voltage 120;
     constant_power_A 12060.00+4766.42j;
     constant_power_B 14890.00+2121.71j;
     constant_power_C 14960.00+4917.11j;
     constant_power_AB 28740.00+21555.00j;
     constant_power_BC 36800.00+27600.00j;
     constant_power_CA 28390.00+23524.76j;
}

object load {
     name "S130";
     phases ABCN;
     nominal_voltage 120;
     constant_power_A 15360.00+6070.66j;
     constant_power_B 14860.00+2117.44j;
     constant_power_C 11960.00+3488.33j;
     constant_power_AB 33060.00+28271.65j;
     constant_power_BC 36160.00+28063.22j;
     constant_power_CA 37310.00+26042.54j;
}

object node {
     name "S131";
     phases ABCN;
     nominal_voltage 120;
}

object load {
     name "S132";
     phases ABCN;
     nominal_voltage 120;
     constant_power_A 17540.00+2499.31j;
     constant_power_B 11780.00+2392.03j;
     constant_power_C 11770.00+4651.80j;
     constant_power_AB 31170.00+25828.35j;
     constant_power_BC 31460.00+21959.22j;
     constant_power_CA 38320.00+25751.20j;
}

object load {
     name "S133";
     phases ABCN;
     nominal_voltage 120;
     constant_power_A 13140.00+4769.18j;
     constant_power_B 13400.00+3908.33j;
     constant_power_C 14450.00+5711.01j;
     constant_power_AB 36680.00+30394.09j;
     constant_power_BC 30050.00+21755.82j;
     constant_power_CA 28290.00+21217.50j;
}

object load {
     name "S134";
     phases ABCN;
     nominal_voltage 120;
     constant_power_A 12340.00+1758.35j;
     constant_power_B 15770.00+5183.35j;
     constant_power_C 15820.00+4614.17j;
     constant_power_AB 36870.00+24776.79j;
     constant_power_BC 32500.00+25222.75j;
     constant_power_CA 35790.00+29656.61j;
}

object load {
     name "S135";
     phases ABCN;
     nominal_voltage 120;
     constant_power_A 13530.00+2747.38j;
     constant_power_B 14580.00+3654.09j;
     constant_power_C 14480.00+2940.29j;
     constant_power_AB 35710.00+28649.47j;
     constant_power_BC 31500.00+26101.80j;
     constant_power_CA 33860.00+28057.36j;
}

object node {
     name "S136";
     phases ABCN;
     nominal_voltage 120;
}

object load {
     name "S137";
     phases ABCN;
     nominal_voltage 120;
     constant_power_A 11960.00+2997.46j;
     constant_power_B 11980.00+1707.06j;
     constant_power_C 12320.00+5613.16j;
     constant_power_AB 30180.00+21065.77j;
     constant_power_BC 35650.00+28601.33j;
     constant_power_CA 28470.00+21352.50j;
}

object load {
     name "S138";
     phases ABCN;
     nominal_voltage 120;
     constant_power_A 12850.00+0.00j;
     constant_power_B 14490.00+6601.84j;
     constant_power_C 13280.00+3873.33j;
     constant_power_AB 37010.00+30667.54j;
     constant_power_BC 26950.00+17407.98j;
     constant_power_CA 29640.00+23779.62j;
}

object load {
     name "S139";
     phases ABCN;
     nominal_voltage 120;
     constant_power_A 16220.00+4065.12j;
     constant_power_B 14700.00+3684.17j;
     constant_power_C 15300.00+3106.80j;
     constant_power_AB 28150.00+20380.25j;
     constant_power_BC 36350.00+30120.64j;
     constant_power_CA 35470.00+27527.72j;
}

object load {
     name "S140";
     phases ABCN;
     nominal_voltage 120;
     constant_power_A 14270.00+2033.36j;
     constant_power_B 12090.00+5150.32j;
     constant_power_C 13660.00+2773.78j;
     constant_power_AB 29390.00+20514.35j;
     constant_power_BC 33660.00+21742.21j;
     constant_power_CA 29880.00+20856.37j;
}

object node {
     name "S141";
     phases ABCN;
     nominal_voltage 120;
}

object load {
     name "S142";
     phases ABCN;
     nominal_voltage 120;
     constant_power_A 13220.00+6023.21j;
     constant_power_B 12400.00+5282.38j;
     constant_power_C 12260.00+4029.67j;
     constant_power_AB 36880.00+30559.82j;
     constant_power_BC 31620.00+20424.50j;
     constant_power_CA 36310.00+31050.93j;
}

object load {
     name "S143";
     phases ABCN;
     nominal_voltage 120;
     constant_power_A 12610.00+4983.79j;
     constant_power_B 15460.00+3874.64j;
     constant_power_C 15220.00+5524.12j;
     constant_power_AB 30620.00+24565.86j;
     constant_power_BC 38280.00+26719.60j;
     constant_power_CA 29340.00+19716.60j;
}

object load {
     name "S144";
     phases ABCN;
     nominal_voltage 120;
     constant_power_A 12170.00+3549.58j;
     constant_power_B 15530.00+6137.85j;
     constant_power_C 14780.00+3001.21j;
     constant_power_AB 28760.00+23073.61j;
     constant_power_BC 37850.00+27402.93j;
     constant_power_CA 29310.00+20458.51j;
}

object node {
     name "S145";
     phases ABCN;
     nominal_voltage 120;
}

object node {
     name "S146";
     phases ABCN;
     nominal_voltage 120;
}

object node {
     name "S147";
     phases ABCN;
     nominal_voltage 120;
}

object node {
     name "S148";
     phases ABCN;
     nominal_voltage 120;
}

object node {
     name "S149";
     phases ABCN;
     nominal_voltage 120;
}

object node {
     name "S150";
     phases ABCN;
     nominal_voltage 120;
}

object node {
     name "S151";
     phases ABCN;
     nominal_voltage 120;
}

object node {
     name "S152";
     phases ABCN;
     nominal_voltage 120;
}

object node {
     name "S153";
     phases ABCN;
     nominal_voltage 120;
}

object node {
     name "S154";
     phases ABCN;
     nominal_voltage 120;
}

object node {
     name "S155";
     phases ABCN;
     nominal_voltage 120;
}

object node {
     name "S156";
     phases ABCN;
     nominal_voltage 120;
}

object node {
     name "S157";
     phases ABCN;
     nominal_voltage 120;
}

object node {
     name "S158";
     phases ABCN;
     nominal_voltage 120;
}

object node {
     name "S159";
     phases ABCN;
     nominal_voltage 120;
}

object node {
     name "S160";
     phases ABCN;
     nominal_voltage 120;
}

object node {
     name "S161";
     phases ABCN;
     nominal_voltage 120;
}

object node {
     name "S162";
     phases ABCN;
     nominal_voltage 120;
}

object node {
     name "S163";
     phases ABCN;
     nominal_voltage 120;
}

object node {
     name "S164";
     phases ABCN;
     nominal_voltage 120;
}

object node {
     name "S165";
     phases ABCN;
     nominal_voltage 120;
}

object node {
     name "S166";
     phases ABCN;
     nominal_voltage 120;
}

object node {
     name "S167";
     phases ABCN;
     nominal_voltage 120;
}

object node {
     name "S168";
     phases ABCN;
     nominal_voltage 120;
}

object node {
     name "S169";
     phases ABCN;
     nominal_voltage 120;
}

object node {
     name "S170";
     phases ABCN;
     nominal_voltage 120;
}

object node {
     name "S171";
     phases ABCN;
     nominal_voltage 120;
}

object node {
     name "S172";
     phases ABCN;
     nominal_voltage 120;
}

object node {
     name "S173";
     phases ABCN;
     nominal_voltage 120;
}

object node {
     name "S174";
     phases ABCN;
     nominal_voltage 120;
}

object node {
     name "S175";
     phases ABCN;
     nominal_voltage 120;
}

object node {
     name "S176";
     phases ABCN;
     nominal_voltage 120;
}

object node {
     name "S177";
     phases ABCN;
     nominal_voltage 120;
}

object node {
     name "S178";
     phases ABCN;
     nominal_voltage 120;
}

object node {
     name "S179";
     phases ABCN;
     nominal_voltage 120;
}

object node {
     name "S180";
     phases ABCN;
     nominal_voltage 120;
}

object node {
     name "S181";
     phases ABCN;
     nominal_voltage 120;
}

object node {
     name "S182";
     phases ABCN;
     nominal_voltage 120;
}

object node {
     name "S183";
     phases ABCN;
     nominal_voltage 120;
}

object node {
     name "S184";
     phases ABCN;
     nominal_voltage 120;
}

object node {
     name "S185";
     phases ABCN;
     nominal_voltage 120;
}

object node {
     name "S186";
     phases ABCN;
     nominal_voltage 120;
}

object node {
     name "S187";
     phases ABCN;
     nominal_voltage 120;
}

object node {
     name "S188";
     phases ABCN;
     nominal_voltage 120;
}

object node {
     name "S189";
     phases ABCN;
     nominal_voltage 120;
}

object node {
     name "S190";
     phases ABCN;
     nominal_voltage 120;
}

object node {
     name "S191";
     phases ABCN;
     nominal_voltage 120;
}

object node {
     name "S192";
     phases ABCN;
     nominal_voltage 120;
}

object load {
     name "S193";
     phases ABCN;
     nominal_voltage 277;
     constant_power_A 364070.00+91244.54j;
     constant_power_B 413730.00+150163.94j;
     constant_power_C 360050.00+164043.63j;
     constant_power_AB 96800.00+67566.82j;
     constant_power_BC 132060.00+99045.00j;
     constant_power_CA 95210.00+76385.21j;
}

object node {
     name "S194";
     phases ABCN;
     nominal_voltage 277;
}

object node {
     name "S195";
     phases ABCN;
     nominal_voltage 277;
}

object node {
     name "S196";
     phases ABCN;
     nominal_voltage 277;
}

object node {
     name "S197";
     phases ABCN;
     nominal_voltage 277;
}

object load {
     name "S198";
     phases ABCN;
     nominal_voltage 277;
     constant_power_A 90830.00+22764.14j;
     constant_power_B 97250.00+19747.45j;
     constant_power_C 100790.00+39834.76j;
     constant_power_AB 188320.00+136341.33j;
     constant_power_BC 187950.00+155740.71j;
     constant_power_CA 203010.00+173606.42j;
}

object node {
     name "S199";
     phases ABCN;
     nominal_voltage 277;
}

object node {
     name "S200";
     phases ABCN;
     nominal_voltage 277;
}

object node {
     name "S201";
     phases ABCN;
     nominal_voltage 277;
}

object node {
     name "S202";
     phases ABCN;
     nominal_voltage 277;
}

object load {
     name "S203";
     phases ABCN;
     nominal_voltage 277;
     constant_power_A 238820.00+48494.47j;
     constant_power_B 232470.00+99031.81j;
     constant_power_C 228580.00+0.00j;
     constant_power_AB 565800.00+453930.83j;
     constant_power_BC 475550.00+381524.93j;
     constant_power_CA 533690.00+372517.91j;
}

object node {
     name "S204";
     phases ABCN;
     nominal_voltage 277;
}

object node {
     name "S205";
     phases ABCN;
     nominal_voltage 277;
}

object node {
     name "S206";
     phases ABCN;
     nominal_voltage 277;
}

object node {
     name "S207";
     phases ABCN;
     nominal_voltage 277;
}

object node {
     name "S208";
     phases ABCN;
     nominal_voltage 277;
}

object node {
     name "S209";
     phases ABCN;
     nominal_voltage 277;
}

object load {
     name "S210";
     phases ABCN;
     nominal_voltage 277;
     constant_power_A 321650.00+116743.36j;
     constant_power_B 303750.00+76126.93j;
     constant_power_C 303870.00+88628.75j;
     constant_power_AB 571830.00+369365.69j;
     constant_power_BC 586560.00+424662.11j;
     constant_power_CA 615940.00+397857.94j;
}

object node {
     name "S211";
     phases ABCN;
     nominal_voltage 277;
}

object node {
     name "S212";
     phases ABCN;
     nominal_voltage 277;
}

object node {
     name "S213";
     phases ABCN;
     nominal_voltage 277;
}

object node {
     name "S214";
     phases ABCN;
     nominal_voltage 277;
}

object node {
     name "S215";
     phases ABCN;
     nominal_voltage 277;
}

object node {
     name "S216";
     phases ABCN;
     nominal_voltage 277;
}

object load {
     name "S217";
     phases ABCN;
     nominal_voltage 277;
     constant_power_A 373140.00+158956.97j;
     constant_power_B 320710.00+136621.89j;
     constant_power_C 345840.00+136684.71j;
     constant_power_AB 621670.00+466252.50j;
     constant_power_BC 618180.00+463635.00j;
     constant_power_CA 580830.00+435622.50j;
}

object node {
     name "S218";
     phases ABCN;
     nominal_voltage 277;
}

object node {
     name "S219";
     phases ABCN;
     nominal_voltage 277;
}

object node {
     name "S220";
     phases ABCN;
     nominal_voltage 277;
}

object node {
     name "S221";
     phases ABCN;
     nominal_voltage 277;
}

object node {
     name "S222";
     phases ABCN;
     nominal_voltage 277;
}

object node {
     name "S223";
     phases ABCN;
     nominal_voltage 277;
}

object load {
     name "S224";
     phases ABCN;
     nominal_voltage 277;
     constant_power_A 386890.00+176272.29j;
     constant_power_B 317260.00+104278.32j;
     constant_power_C 282420.00+70781.12j;
     constant_power_AB 652020.00+489015.00j;
     constant_power_BC 652910.00+523817.57j;
     constant_power_CA 588220.00+456508.49j;
}

object node {
     name "S225";
     phases ABCN;
     nominal_voltage 277;
}

object node {
     name "S226";
     phases ABCN;
     nominal_voltage 277;
}

object node {
     name "S227";
     phases ABCN;
     nominal_voltage 277;
}

object node {
     name "S228";
     phases ABCN;
     nominal_voltage 277;
}

object node {
     name "S229";
     phases ABCN;
     nominal_voltage 277;
}

object node {
     name "S230";
     phases ABCN;
     nominal_voltage 277;
}

object load {
     name "S231";
     phases ABCN;
     nominal_voltage 277;
     constant_power_A 55670.00+22002.19j;
     constant_power_B 39900.00+16997.33j;
     constant_power_C 52710.00+22454.37j;
     constant_power_AB 81260.00+58831.22j;
     constant_power_BC 92160.00+73938.26j;
     constant_power_CA 104450.00+67468.03j;
}

object node {
     name "S232";
     phases ABCN;
     nominal_voltage 277;
}

object node {
     name "S233";
     phases ABCN;
     nominal_voltage 277;
}

object node {
     name "S234";
     phases ABCN;
     nominal_voltage 277;
}

object node {
     name "S235";
     phases ABCN;
     nominal_voltage 277;
}

object load {
     name "S236";
     phases ABCN;
     nominal_voltage 277;
     constant_power_A 276920.00+80768.33j;
     constant_power_B 310850.00+44293.73j;
     constant_power_C 312340.00+133056.28j;
     constant_power_AB 616160.00+494333.72j;
     constant_power_BC 624230.00+533817.74j;
     constant_power_CA 563510.00+437331.44j;
}

object node {
     name "S237";
     phases ABCN;
     nominal_voltage 277;
}

object node {
     name "S238";
     phases ABCN;
     nominal_voltage 277;
}

object node {
     name "S239";
     phases ABCN;
     nominal_voltage 277;
}

object node {
     name "S240";
     phases ABCN;
     nominal_voltage 277;
}

// Inserting Pseudo Nodes 
object node {
     name "S194_S193_1";
     phases ABCN;
     nominal_voltage 277;
}

object node {
     name "S194_S193_2";
     phases ABCN;
     nominal_voltage 277;
}

object node {
     name "S194_S193_3";
     phases ABCN;
     nominal_voltage 277;
}

object node {
     name "S194_S193_4";
     phases ABCN;
     nominal_voltage 277;
}

object node {
     name "S194_S193_5";
     phases ABCN;
     nominal_voltage 277;
}

object node {
     name "S195_S193_1";
     phases ABCN;
     nominal_voltage 277;
}

object node {
     name "S195_S193_2";
     phases ABCN;
     nominal_voltage 277;
}

object node {
     name "S195_S193_3";
     phases ABCN;
     nominal_voltage 277;
}

object node {
     name "S195_S193_4";
     phases ABCN;
     nominal_voltage 277;
}

object node {
     name "S195_S193_5";
     phases ABCN;
     nominal_voltage 277;
}

object node {
     name "S199_S198_1";
     phases ABCN;
     nominal_voltage 277;
}

object node {
     name "S199_S198_2";
     phases ABCN;
     nominal_voltage 277;
}

object node {
     name "S199_S198_3";
     phases ABCN;
     nominal_voltage 277;
}

object node {
     name "S199_S198_4";
     phases ABCN;
     nominal_voltage 277;
}

object node {
     name "S199_S198_5";
     phases ABCN;
     nominal_voltage 277;
}

object node {
     name "S200_S198_1";
     phases ABCN;
     nominal_voltage 277;
}

object node {
     name "S200_S198_2";
     phases ABCN;
     nominal_voltage 277;
}

object node {
     name "S200_S198_3";
     phases ABCN;
     nominal_voltage 277;
}

object node {
     name "S200_S198_4";
     phases ABCN;
     nominal_voltage 277;
}

object node {
     name "S200_S198_5";
     phases ABCN;
     nominal_voltage 277;
}

object node {
     name "S204_S203_1";
     phases ABCN;
     nominal_voltage 277;
}

object node {
     name "S204_S203_2";
     phases ABCN;
...